omf/solvers/opendss/ieee240_ours.dss.glm
object node {
	name bus1;
	phases ABC;
	latitude 13.6;
	longitude 10.52;
};

object node {
	name bus1001;
	phases ABC;
	latitude 13.04;
	longitude 10.19;
};

object node {
	name bus1002;
	phases ABC;
	latitude 14.11;
	longitude 8.9;
};

object node {
	name bus1003;
	phases ABC;
	latitude 13.36;
	longitude 8.9;
};

object node {
	name bus1004;
	phases ABC;
	latitude 14.11;
	longitude 7.77;
};

object node {
	name bus1005;
	phases ABC;
	latitude 14.11;
	longitude 6.4;
};

object node {
	name bus1006;
	phases ABC;
	latitude 14.11;
	longitude 5.15;
};

object node {
	name bus1007;
	phases ABC;
	latitude 12.98;
	longitude 5.15;
};

object node {
	name bus1008;
	phases ABC;
	latitude 14.11;
	longitude 3.71;
};

object node {
	name bus1009;
	phases ABC;
	latitude 14.11;
	longitude 2.4;
};

object node {
	name bus1010;
	phases ABC;
	latitude 14.11;
	longitude 1.4;
};

object node {
	name bus1011;
	phases ABC;
	latitude 12.98;
	longitude 2.4;
};

object node {
	name bus1012;
	phases ABC;
	latitude 12.11;
	longitude 2.4;
};

object node {
	name bus1013;
	phases ABC;
	latitude 11.23;
	longitude 2.4;
};

object node {
	name bus1014;
	phases ABC;
	latitude 11.23;
	longitude 3.85;
};

object node {
	name bus1015;
	phases ABC;
	latitude 11.23;
	longitude 4.85;
};

object node {
	name bus1016;
	phases ABC;
	latitude 10.48;
	longitude 2.4;
};

object node {
	name bus1017;
	phases ABC;
	latitude 9.73;
	longitude 2.4;
};

object node {
	name bus2001;
	phases ABC;
	latitude 12.23;
	longitude 10.52;
};

object node {
	name bus2002;
	phases ABC;
	latitude 7.58;
	longitude 9.56;
};

object node {
	name bus2003;
	phases ABC;
	latitude 7.58;
	longitude 8.3;
};

object node {
	name bus2004;
	phases ABC;
	latitude 7.58;
	longitude 7.07;
};

object node {
	name bus2005;
	phases ABC;
	latitude 7.58;
	longitude 5.77;
};

object node {
	name bus2006;
	phases ABC;
	latitude 7.58;
	longitude 4.54;
};

object node {
	name bus2007;
	phases ABC;
	latitude 8.25;
	longitude 4.55;
};

object node {
	name bus2008;
	phases ABC;
	latitude 8.25;
	longitude 3.66;
};

object node {
	name bus2009;
	phases ABC;
	latitude 8.93;
	longitude 4.55;
};

object node {
	name bus2010;
	phases ABC;
	latitude 7.58;
	longitude 3.68;
};

object node {
	name bus2011;
	phases ABC;
	latitude 7.58;
	longitude 2.71;
};

object node {
	name bus2012;
	phases ABC;
	latitude 7.1;
	longitude 2.32;
};

object node {
	name bus2013;
	phases ABC;
	latitude 6.44;
	longitude 2.31;
};

object node {
	name bus2014;
	phases ABC;
	latitude 5.68;
	longitude 2.31;
};

object node {
	name bus2015;
	phases ABC;
	latitude 5.68;
	longitude 1.41;
};

object node {
	name bus2016;
	phases ABC;
	latitude 4.97;
	longitude 2.31;
};

object node {
	name bus2017;
	phases ABC;
	latitude 4.24;
	longitude 2.31;
};

object node {
	name bus2018;
	phases ABC;
	latitude 3.51;
	longitude 2.31;
};

object node {
	name bus2019;
	phases ABC;
	latitude 6.45;
	longitude 3.23;
};

object node {
	name bus2020;
	phases ABC;
	latitude 5.85;
	longitude 3.23;
};

object node {
	name bus2021;
	phases ABC;
	latitude 6.44;
	longitude 4.04;
};

object node {
	name bus2022;
	phases ABC;
	latitude 5.72;
	longitude 4.04;
};

object node {
	name bus2023;
	phases ABC;
	latitude 4.99;
	longitude 4.04;
};

object node {
	name bus2024;
	phases ABC;
	latitude 4.26;
	longitude 4.04;
};

object node {
	name bus2025;
	phases ABC;
	latitude 3.53;
	longitude 4.04;
};

object node {
	name bus2026;
	phases ABC;
	latitude 6.45;
	longitude 4.8;
};

object node {
	name bus2027;
	phases ABC;
	latitude 6.45;
	longitude 5.59;
};

object node {
	name bus2028;
	phases ABC;
	latitude 5.88;
	longitude 5.59;
};

object node {
	name bus2029;
	phases ABC;
	latitude 5.31;
	longitude 5.58;
};

object node {
	name bus2030;
	phases ABC;
	latitude 4.73;
	longitude 5.58;
};

object node {
	name bus2031;
	phases ABC;
	latitude 4.16;
	longitude 5.58;
};

object node {
	name bus2032;
	phases ABC;
	latitude 6.45;
	longitude 6.61;
};

object node {
	name bus2033;
	phases ABC;
	latitude 6.45;
	longitude 7.6;
};

object node {
	name bus2034;
	phases ABC;
	latitude 5.79;
	longitude 7.6;
};

object node {
	name bus2035;
	phases ABC;
	latitude 6.44;
	longitude 8.46;
};

object node {
	name bus2036;
	phases ABC;
	latitude 6.45;
	longitude 9.3;
};

object node {
	name bus2037;
	phases ABC;
	latitude 6.45;
	longitude 10.21;
};

object node {
	name bus2038;
	phases ABC;
	latitude 5.84;
	longitude 10.21;
};

object node {
	name bus2039;
	phases ABC;
	latitude 4.98;
	longitude 10.21;
};

object node {
	name bus2040;
	phases ABC;
	latitude 4.98;
	longitude 11.07;
};

object node {
	name bus2041;
	phases ABC;
	latitude 4.98;
	longitude 11.88;
};

object node {
	name bus2042;
	phases ABC;
	latitude 4.39;
	longitude 10.21;
};

object node {
	name bus2043;
	phases ABC;
	latitude 3.63;
	longitude 10.21;
};

object node {
	name bus2044;
	phases ABC;
	latitude 3.63;
	longitude 8.76;
};

object node {
	name bus2045;
	phases ABC;
	latitude 4.29;
	longitude 8.76;
};

object node {
	name bus2046;
	phases ABC;
	latitude 5;
	longitude 8.76;
};

object node {
	name bus2047;
	phases ABC;
	latitude 4.29;
	longitude 7.84;
};

object node {
	name bus2048;
	phases ABC;
	latitude 4.29;
	longitude 6.92;
};

object node {
	name bus2049;
	phases ABC;
	latitude 3.63;
	longitude 7.87;
};

object node {
	name bus2050;
	phases ABC;
	latitude 3.63;
	longitude 7.01;
};

object node {
	name bus2051;
	phases ABC;
	latitude 3.62;
	longitude 6.16;
};

object node {
	name bus2052;
	phases ABC;
	latitude 2.81;
	longitude 6.16;
};

object node {
	name bus2053;
	phases ABC;
	latitude 2.1;
	longitude 8.76;
};

object node {
	name bus2054;
	phases ABC;
	latitude 2.1;
	longitude 7.78;
};

object node {
	name bus2055;
	phases ABC;
	latitude 2.1;
	longitude 6.84;
};

object node {
	name bus2056;
	phases ABC;
	latitude 2.1;
	longitude 5.86;
};

object node {
	name bus2057;
	phases ABC;
	latitude 1.4;
	longitude 8.76;
};

object node {
	name bus2058;
	phases ABC;
	latitude 1.4;
	longitude 9.9;
};

object node {
	name bus2059;
	phases ABC;
	latitude 1.4;
	longitude 7.72;
};

object node {
	name bus2060;
	phases ABC;
	latitude 1.4;
	longitude 6.76;
};

object node {
	name bus3001;
	phases ABC;
	latitude 13.02;
	longitude 10.83;
};

object node {
	name bus3002;
	phases ABC;
	latitude 12.16;
	longitude 12.5;
};

object node {
	name bus3003;
	phases ABC;
	latitude 12.85;
	longitude 12.5;
};

object node {
	name bus3004;
	phases ABC;
	latitude 13.43;
	longitude 12.5;
};

object node {
	name bus3005;
	phases ABC;
	latitude 12.85;
	longitude 13.36;
};

object node {
	name bus3006;
	phases ABC;
	latitude 13.91;
	longitude 13.36;
};

object node {
	name bus3007;
	phases ABC;
	latitude 14.71;
	longitude 13.36;
};

object node {
	name bus3008;
	phases ABC;
	latitude 11.41;
	longitude 14.62;
};

object node {
	name bus3009;
	phases ABC;
	latitude 12.04;
	longitude 14.61;
};

object node {
	name bus3010;
	phases ABC;
	latitude 12.7;
	longitude 14.62;
};

object node {
	name bus3011;
	phases ABC;
	latitude 13.36;
	longitude 14.61;
};

object node {
	name bus3012;
	phases ABC;
	latitude 14.02;
	longitude 14.62;
};

object node {
	name bus3013;
	phases ABC;
	latitude 10.77;
	longitude 14.61;
};

object node {
	name bus3014;
	phases ABC;
	latitude 10.06;
	longitude 14.62;
};

object node {
	name bus3015;
	phases ABC;
	latitude 11.41;
	longitude 15.79;
};

object node {
	name bus3016;
	phases ABC;
	latitude 10.75;
	longitude 15.8;
};

object node {
	name bus3017;
	phases ABC;
	latitude 10.1;
	longitude 15.8;
};

object node {
	name bus3018;
	phases ABC;
	latitude 12.07;
	longitude 15.8;
};

object node {
	name bus3019;
	phases ABC;
	latitude 12.72;
	longitude 15.8;
};

object node {
	name bus3020;
	phases ABC;
	latitude 13.38;
	longitude 15.8;
};

object node {
	name bus3021;
	phases ABC;
	latitude 14.03;
	longitude 15.8;
};

object node {
	name bus3022;
	phases ABC;
	latitude 11.41;
	longitude 16.99;
};

object node {
	name bus3023;
	phases ABC;
	latitude 10.76;
	longitude 16.99;
};

object node {
	name bus3024;
	phases ABC;
	latitude 10.12;
	longitude 16.99;
};

object node {
	name bus3025;
	phases ABC;
	latitude 9.47;
	longitude 16.99;
};

object node {
	name bus3026;
	phases ABC;
	latitude 12.06;
	longitude 16.99;
};

object node {
	name bus3027;
	phases ABC;
	latitude 12.72;
	longitude 16.99;
};

object node {
	name bus3028;
	phases ABC;
	latitude 13.38;
	longitude 16.99;
};

object node {
	name bus3029;
	phases ABC;
	latitude 14.03;
	longitude 16.99;
};

object node {
	name bus3030;
	phases ABC;
	latitude 11.41;
	longitude 18.26;
};

object node {
	name bus3031;
	phases ABC;
	latitude 10.91;
	longitude 18.26;
};

object node {
	name bus3032;
	phases ABC;
	latitude 10.4;
	longitude 18.26;
};

object node {
	name bus3033;
	phases ABC;
	latitude 9.9;
	longitude 18.26;
};

object node {
	name bus3034;
	phases ABC;
	latitude 9.39;
	longitude 18.26;
};

object node {
	name bus3035;
	phases ABC;
	latitude 12.05;
	longitude 18.25;
};

object node {
	name bus3036;
	phases ABC;
	latitude 12.68;
	longitude 18.27;
};

object node {
	name bus3037;
	phases ABC;
	latitude 13.32;
	longitude 18.25;
};

object node {
	name bus3038;
	phases ABC;
	latitude 13.95;
	longitude 18.25;
};

object node {
	name bus3039;
	phases ABC;
	latitude 14.59;
	longitude 18.26;
};

object node {
	name bus3040;
	phases ABC;
	latitude 11.41;
	longitude 19.51;
};

object node {
	name bus3041;
	phases ABC;
	latitude 10.87;
	longitude 19.51;
};

object node {
	name bus3042;
	phases ABC;
	latitude 10.33;
	longitude 19.51;
};

object node {
	name bus3043;
	phases ABC;
	latitude 9.79;
	longitude 19.51;
};

object node {
	name bus3044;
	phases ABC;
	latitude 12.03;
	longitude 19.51;
};

object node {
	name bus3045;
	phases ABC;
	latitude 12.63;
	longitude 19.51;
};

object node {
	name bus3046;
	phases ABC;
	latitude 11.41;
	longitude 20.88;
};

object node {
	name bus3047;
	phases ABC;
	latitude 12.16;
	longitude 20.88;
};

object node {
	name bus3048;
	phases ABC;
	latitude 10.92;
	longitude 21.17;
};

object node {
	name bus3049;
	phases ABC;
	latitude 10.92;
	longitude 22;
};

object node {
	name bus3050;
	phases ABC;
	latitude 10.92;
	longitude 22.82;
};

object node {
	name bus3051;
	phases ABC;
	latitude 10.92;
	longitude 23.64;
};

object node {
	name bus3052;
	phases ABC;
	latitude 10.91;
	longitude 24.46;
};

object node {
	name bus3053;
	phases ABC;
	latitude 14.79;
	longitude 19.51;
};

object node {
	name bus3054;
	phases ABC;
	latitude 14.19;
	longitude 19.51;
};

object node {
	name bus3055;
	phases ABC;
	latitude 14.79;
	longitude 21.01;
};

object node {
	name bus3056;
	phases ABC;
	latitude 15.2;
	longitude 21.5;
};

object node {
	name bus3057;
	phases ABC;
	latitude 15.2;
	longitude 22.22;
};

object node {
	name bus3058;
	phases ABC;
	latitude 15.2;
	longitude 22.93;
};

object node {
	name bus3059;
	phases ABC;
	latitude 15.2;
	longitude 23.65;
};

object node {
	name bus3060;
	phases ABC;
	latitude 15.2;
	longitude 24.37;
};

object node {
	name bus3061;
	phases ABC;
	latitude 15.2;
	longitude 25.09;
};

object node {
	name bus3062;
	phases ABC;
	latitude 14.13;
	longitude 21.53;
};

object node {
	name bus3063;
	phases ABC;
	latitude 14.13;
	longitude 22.24;
};

object node {
	name bus3064;
	phases ABC;
	latitude 14.14;
	longitude 22.95;
};

object node {
	name bus3065;
	phases ABC;
	latitude 14.13;
	longitude 23.66;
};

object node {
	name bus3066;
	phases ABC;
	latitude 14.13;
	longitude 24.38;
};

object node {
	name bus3067;
	phases ABC;
	latitude 14.13;
	longitude 25.09;
};

object node {
	name bus3068;
	phases ABC;
	latitude 8.82;
	longitude 18.26;
};

object node {
	name bus3069;
	phases ABC;
	latitude 8.82;
	longitude 16.65;
};

object node {
	name bus3070;
	phases ABC;
	latitude 8.27;
	longitude 16.65;
};

object node {
	name bus3071;
	phases ABC;
	latitude 7.71;
	longitude 16.65;
};

object node {
	name bus3072;
	phases ABC;
	latitude 7.16;
	longitude 16.65;
};

object node {
	name bus3073;
	phases ABC;
	latitude 8.82;
	longitude 15.76;
};

object node {
	name bus3074;
	phases ABC;
	latitude 8.82;
	longitude 14.98;
};

object node {
	name bus3075;
	phases ABC;
	latitude 8.82;
	longitude 19.05;
};

object node {
	name bus3076;
	phases ABC;
	latitude 8.82;
	longitude 19.97;
};

object node {
	name bus3077;
	phases ABC;
	latitude 8.82;
	longitude 20.73;
};

object node {
	name bus3078;
	phases ABC;
	latitude 8.82;
	longitude 21.49;
};

object node {
	name bus3079;
	phases ABC;
	latitude 8.07;
	longitude 19.97;
};

object node {
	name bus3080;
	phases ABC;
	latitude 7.42;
	longitude 19.97;
};

object node {
	name bus3081;
	phases ABC;
	latitude 7.42;
	longitude 19.21;
};

object node {
	name bus3082;
	phases ABC;
	latitude 6.79;
	longitude 19.97;
};

object node {
	name bus3083;
	phases ABC;
	latitude 6.79;
	longitude 19.1;
};

object node {
	name bus3084;
	phases ABC;
	latitude 6.79;
	longitude 18.23;
};

object node {
	name bus3085;
	phases ABC;
	latitude 6.79;
	longitude 17.36;
};

object node {
	name bus3086;
	phases ABC;
	latitude 6.79;
	longitude 16.49;
};

object node {
	name bus3087;
	phases ABC;
	latitude 6.79;
	longitude 15.62;
};

object node {
	name bus3088;
	phases ABC;
	latitude 6.79;
	longitude 14.75;
};

object node {
	name bus3089;
	phases ABC;
	latitude 6.79;
	longitude 13.88;
};

object node {
	name bus3090;
	phases ABC;
	latitude 6.79;
	longitude 13.01;
};

object node {
	name bus3091;
	phases ABC;
	latitude 6.79;
	longitude 12.14;
};

object node {
	name bus3092;
	phases ABC;
	latitude 6.79;
	longitude 22.05;
};

object node {
	name bus3093;
	phases ABC;
	latitude 7.3;
	longitude 22.07;
};

object node {
	name bus3094;
	phases ABC;
	latitude 7.81;
	longitude 22.04;
};

object node {
	name bus3095;
	phases ABC;
	latitude 8.32;
	longitude 22.05;
};

object node {
	name bus3096;
	phases ABC;
	latitude 8.83;
	longitude 22.05;
};

object node {
	name bus3097;
	phases ABC;
	latitude 9.34;
	longitude 22.05;
};

object node {
	name bus3098;
	phases ABC;
	latitude 6.13;
	longitude 22.05;
};

object node {
	name bus3099;
	phases ABC;
	latitude 5.56;
	longitude 22.05;
};

object node {
	name bus3100;
	phases ABC;
	latitude 6.8;
	longitude 23.09;
};

object node {
	name bus3101;
	phases ABC;
	latitude 6.8;
	longitude 23.86;
};

object node {
	name bus3102;
	phases ABC;
	latitude 6.8;
	longitude 24.53;
};

object node {
	name bus3103;
	phases ABC;
	latitude 6.8;
	longitude 25.12;
};

object node {
	name bus3104;
	phases ABC;
	latitude 7.52;
	longitude 23.09;
};

object node {
	name bus3105;
	phases ABC;
	latitude 8.08;
	longitude 23.08;
};

object node {
	name bus3106;
	phases ABC;
	latitude 8.67;
	longitude 23.09;
};

object node {
	name bus3107;
	phases ABC;
	latitude 5.54;
	longitude 19.98;
};

object node {
	name bus3108;
	phases ABC;
	latitude 5.54;
	longitude 18.97;
};

object node {
	name bus3109;
	phases ABC;
	latitude 5.54;
	longitude 18.07;
};

object node {
	name bus3110;
	phases ABC;
	latitude 5.54;
	longitude 16.97;
};

object node {
	name bus3111;
	phases ABC;
	latitude 5.54;
	longitude 15.97;
};

object node {
	name bus3112;
	phases ABC;
	latitude 5.54;
	longitude 15.07;
};

object node {
	name bus3113;
	phases ABC;
	latitude 4.76;
	longitude 18.63;
};

object node {
	name bus3114;
	phases ABC;
	latitude 4.15;
	longitude 18.63;
};

object node {
	name bus3115;
	phases ABC;
	latitude 3.53;
	longitude 18.63;
};

object node {
	name bus3116;
	phases ABC;
	latitude 4.75;
	longitude 17.55;
};

object node {
	name bus3117;
	phases ABC;
	latitude 4.76;
	longitude 16.55;
};

object node {
	name bus3118;
	phases ABC;
	latitude 4.03;
	longitude 21.36;
};

object node {
	name bus3119;
	phases ABC;
	latitude 4.03;
	longitude 22.77;
};

object node {
	name bus3120;
	phases ABC;
	latitude 4.69;
	longitude 22.77;
};

object node {
	name bus3121;
	phases ABC;
	latitude 5.34;
	longitude 22.78;
};

object node {
	name bus3122;
	phases ABC;
	latitude 5.96;
	longitude 22.78;
};

object node {
	name bus3123;
	phases ABC;
	latitude 4.04;
	longitude 23.64;
};

object node {
	name bus3124;
	phases ABC;
	latitude 4.04;
	longitude 24.42;
};

object node {
	name bus3125;
	phases ABC;
	latitude 4.04;
	longitude 25.17;
};

object node {
	name bus3126;
	phases ABC;
	latitude 4.04;
	longitude 25.97;
};

object node {
	name bus3127;
	phases ABC;
	latitude 4.58;
	longitude 25.97;
};

object node {
	name bus3128;
	phases ABC;
	latitude 5.12;
	longitude 25.97;
};

object node {
	name bus3129;
	phases ABC;
	latitude 5.66;
	longitude 25.97;
};

object node {
	name bus3130;
	phases ABC;
	latitude 6.2;
	longitude 25.97;
};

object node {
	name bus3131;
	phases ABC;
	latitude 6.75;
	longitude 25.97;
};

object node {
	name bus3132;
	phases ABC;
	latitude 3.22;
	longitude 21.35;
};

object node {
	name bus3133;
	phases ABC;
	latitude 2.41;
	longitude 21.36;
};

object node {
	name bus3134;
	phases ABC;
	latitude 2.41;
	longitude 22.53;
};

object node {
	name bus3135;
	phases ABC;
	latitude 2.41;
	longitude 23.57;
};

object node {
	name bus3136;
	phases ABC;
	latitude 2.41;
	longitude 24.53;
};

object node {
	name bus3137;
	phases ABC;
	latitude 1.79;
	longitude 21.37;
};

object node {
	name bus3138;
	phases ABC;
	latitude 1.16;
	longitude 21.37;
};

object node {
	name bus3139;
	phases ABC;
	latitude 0.53;
	longitude 21.36;
};

object node {
	name bus3140;
	phases ABC;
	latitude 2.5;
	longitude 17.61;
};

object node {
	name bus3141;
	phases ABC;
	latitude 2.48;
	longitude 18.42;
};

object node {
	name bus3142;
	phases ABC;
	latitude 2.48;
	longitude 19.23;
};

object node {
	name bus3143;
	phases ABC;
	latitude 2.49;
	longitude 20.03;
};

object node {
	name bus3144;
	phases ABC;
	latitude 1.11;
	longitude 18.31;
};

object node {
	name bus3145;
	phases ABC;
	latitude 1.11;
	longitude 18.99;
};

object node {
	name bus3146;
	phases ABC;
	latitude 1.11;
	longitude 19.67;
};

object node {
	name bus3147;
	phases ABC;
	latitude 1.11;
	longitude 20.35;
};

object node {
	name bus3148;
	phases ABC;
	latitude 2.48;
	longitude 16.87;
};

object node {
	name bus3149;
	phases ABC;
	latitude 2.48;
	longitude 16.13;
};

object node {
	name bus3150;
	phases ABC;
	latitude 2.48;
	longitude 15.4;
};

object node {
	name bus3151;
	phases ABC;
	latitude 2.48;
	longitude 14.66;
};

object node {
	name bus3152;
	phases ABC;
	latitude 2.48;
	longitude 13.92;
};

object node {
	name bus3153;
	phases ABC;
	latitude 2.48;
	longitude 13.18;
};

object node {
	name bus3154;
	phases ABC;
	latitude 2.49;
	longitude 12.44;
};

object node {
	name bus3155;
	phases ABC;
	latitude 2.49;
	longitude 11.7;
};

object node {
	name bus3156;
	phases ABC;
	latitude 1.11;
	longitude 17.64;
};

object node {
	name bus3157;
	phases ABC;
	latitude 1.11;
	longitude 16.9;
};

object node {
	name bus3158;
	phases ABC;
	latitude 1.11;
	longitude 16.17;
};

object node {
	name bus3159;
	phases ABC;
	latitude 1.11;
	longitude 15.43;
};

object node {
	name bus3160;
	phases ABC;
	latitude 1.11;
	longitude 14.7;
};

object node {
	name bus3161;
	phases ABC;
	latitude 1.11;
	longitude 13.97;
};

object node {
	name bus3162;
	phases ABC;
	latitude 1.11;
	longitude 13.23;
};

object overhead_line {
	name Line.L_1001_1002;
	phases ABC;
	from bus1001;
	to bus1002;
};

object overhead_line {
	name Line.L_1002_1003;
	phases ABC;
	from bus1002;
	to bus1003;
};

object overhead_line {
	name Line.L_1002_1004;
	phases ABC;
	from bus1002;
	to bus1004;
};

object overhead_line {
	name Line.L_1004_1005;
	phases ABC;
	from bus1004;
	to bus1005;
};

object overhead_line {
	name Line.L_1005_1006;
	phases ABC;
	from bus1005;
	to bus1006;
};

object overhead_line {
	name Line.L_1006_1007;
	phases ABC;
	from bus1006;
	to bus1007;
};

object overhead_line {
	name Line.L_1006_1008;
	phases ABC;
	from bus1006;
	to bus1008;
};

object overhead_line {
	name Line.L_1008_1009;
	phases ABC;
	from bus1008;
	to bus1009;
};

object overhead_line {
	name Line.L_1009_1010;
	phases ABC;
	from bus1009;
	to bus1010;
};

object overhead_line {
	name Line.L_1009_1011;
	phases ABC;
	from bus1009;
	to bus1011;
};

object overhead_line {
	name Line.L_1011_1012;
	phases ABC;
	from bus1011;
	to bus1012;
};

object overhead_line {
	name Line.L_1012_1013;
	phases ABC;
	from bus1012;
	to bus1013;
};

object overhead_line {
	name Line.L_1013_1014;
	phases ABC;
	from bus1013;
	to bus1014;
};

object overhead_line {
	name Line.L_1014_1015;
	phases ABC;
	from bus1014;
	to bus1015;
};

object overhead_line {
	name Line.L_1013_1016;
	phases ABC;
	from bus1013;
	to bus1016;
};

object overhead_line {
	name Line.L_1016_1017;
	phases ABC;
	from bus1016;
	to bus1017;
};

object overhead_line {
	name Line.L_2001_2002;
	phases ABC;
	from bus2001;
	to bus2002;
};

object overhead_line {
	name Line.L_2002_2003;
	phases ABC;
	from bus2002;
	to bus2003;
};

object overhead_line {
	name Line.L_2003_2004;
	phases ABC;
	from bus2003;
	to bus2004;
};

object overhead_line {
	name Line.L_2004_2005;
	phases ABC;
	from bus2004;
	to bus2005;
};

object overhead_line {
	name Line.L_2005_2006;
	phases ABC;
	from bus2005;
	to bus2006;
};

object overhead_line {
	name Line.L_2006_2007;
	phases ABC;
	from bus2006;
	to bus2007;
};

object overhead_line {
	name Line.L_2007_2008;
	phases ABC;
	from bus2007;
	to bus2008;
};

object overhead_line {
	name Line.L_2007_2009;
	phases ABC;
	from bus2007;
	to bus2009;
};

object overhead_line {
	name Line.L_2006_2010;
	phases ABC;
	from bus2006;
	to bus2010;
};

object overhead_line {
	name Line.L_2010_2011;
	phases ABC;
	from bus2010;
	to bus2011;
};

object overhead_line {
	name Line.L_2011_2012;
	phases ABC;
	from bus2011;
	to bus2012;
};

object overhead_line {
	name Line.L_2013_2014;
	phases ABC;
	from bus2013;
	to bus2014;
};

object overhead_line {
	name Line.L_2014_2015;
	phases ABC;
	from bus2014;
	to bus2015;
};

object overhead_line {
	name Line.L_2014_2016;
	phases ABC;
	from bus2014;
	to bus2016;
};

object overhead_line {
	name Line.L_2016_2017;
	phases ABC;
	from bus2016;
	to bus2017;
};

object overhead_line {
	name Line.L_2017_2018;
	phases ABC;
	from bus2017;
	to bus2018;
};

object overhead_line {
	name Line.L_2013_2019;
	phases ABC;
	from bus2013;
	to bus2019;
};

object overhead_line {
	name Line.L_2019_2020;
	phases ABC;
	from bus2019;
	to bus2020;
};

object overhead_line {
	name Line.L_2019_2021;
	phases ABC;
	from bus2019;
	to bus2021;
};

object overhead_line {
	name Line.L_2021_2022;
	phases ABC;
	from bus2021;
	to bus2022;
};

object overhead_line {
	name Line.L_2022_2023;
	phases ABC;
	from bus2022;
	to bus2023;
};

object overhead_line {
	name Line.L_2023_2024;
	phases ABC;
	from bus2023;
	to bus2024;
};

object overhead_line {
	name Line.L_2024_2025;
	phases ABC;
	from bus2024;
	to bus2025;
};

object overhead_line {
	name Line.L_2026_2027;
	phases ABC;
	from bus2026;
	to bus2027;
};

object overhead_line {
	name Line.L_2027_2028;
	phases ABC;
	from bus2027;
	to bus2028;
};

object overhead_line {
	name Line.L_2028_2029;
	phases ABC;
	from bus2028;
	to bus2029;
};

object overhead_line {
	name Line.L_2029_2030;
	phases ABC;
	from bus2029;
	to bus2030;
};

object overhead_line {
	name Line.L_2030_2031;
	phases ABC;
	from bus2030;
	to bus2031;
};

object overhead_line {
	name Line.L_2027_2032;
	phases ABC;
	from bus2027;
	to bus2032;
};

object overhead_line {
	name Line.L_2032_2033;
	phases ABC;
	from bus2032;
	to bus2033;
};

object overhead_line {
	name Line.L_2033_2034;
	phases ABC;
	from bus2033;
	to bus2034;
};

object overhead_line {
	name Line.L_2033_2035;
	phases ABC;
	from bus2033;
	to bus2035;
};

object overhead_line {
	name Line.L_2035_2036;
	phases ABC;
	from bus2035;
	to bus2036;
};

object overhead_line {
	name Line.L_2036_2037;
	phases ABC;
	from bus2036;
	to bus2037;
};

object overhead_line {
	name Line.L_2037_2038;
	phases ABC;
	from bus2037;
	to bus2038;
};

object overhead_line {
	name Line.L_2038_2039;
	phases ABC;
	from bus2038;
	to bus2039;
};

object overhead_line {
	name Line.L_2039_2040;
	phases ABC;
	from bus2039;
	to bus2040;
};

object overhead_line {
	name Line.L_2040_2041;
	phases ABC;
	from bus2040;
	to bus2041;
};

object overhead_line {
	name Line.L_2039_2042;
	phases ABC;
	from bus2039;
	to bus2042;
};

object overhead_line {
	name Line.L_2042_2043;
	phases ABC;
	from bus2042;
	to bus2043;
};

object overhead_line {
	name Line.L_2043_2044;
	phases ABC;
	from bus2043;
	to bus2044;
};

object overhead_line {
	name Line.L_2044_2045;
	phases ABC;
	from bus2044;
	to bus2045;
};

object overhead_line {
	name Line.L_2045_2046;
	phases ABC;
	from bus2045;
	to bus2046;
};

object overhead_line {
	name Line.L_2045_2047;
	phases ABC;
	from bus2045;
	to bus2047;
};

object overhead_line {
	name Line.L_2047_2048;
	phases ABC;
	from bus2047;
	to bus2048;
};

object overhead_line {
	name Line.L_2044_2049;
	phases ABC;
	from bus2044;
	to bus2049;
};

object overhead_line {
	name Line.L_2049_2050;
	phases ABC;
	from bus2049;
	to bus2050;
};

object overhead_line {
	name Line.L_2050_2051;
	phases ABC;
	from bus2050;
	to bus2051;
};

object overhead_line {
	name Line.L_2051_2052;
	phases ABC;
	from bus2051;
	to bus2052;
};

object overhead_line {
	name Line.L_2044_2053;
	phases ABC;
	from bus2044;
	to bus2053;
};

object overhead_line {
	name Line.L_2053_2054;
	phases ABC;
	from bus2053;
	to bus2054;
};

object overhead_line {
	name Line.L_2054_2055;
	phases ABC;
	from bus2054;
	to bus2055;
};

object overhead_line {
	name Line.L_2055_2056;
	phases ABC;
	from bus2055;
	to bus2056;
};

object overhead_line {
	name Line.L_2053_2057;
	phases ABC;
	from bus2053;
	to bus2057;
};

object overhead_line {
	name Line.L_2057_2058;
	phases ABC;
	from bus2057;
	to bus2058;
};

object overhead_line {
	name Line.L_2057_2059;
	phases ABC;
	from bus2057;
	to bus2059;
};

object overhead_line {
	name Line.L_2059_2060;
	phases ABC;
	from bus2059;
	to bus2060;
};

object overhead_line {
	name Line.L_3001_3003;
	phases ABC;
	from bus3001;
	to bus3003;
};

object overhead_line {
	name Line.L_3003_3002;
	phases ABC;
	from bus3003;
	to bus3002;
};

object overhead_line {
	name Line.L_3003_3004;
	phases ABC;
	from bus3003;
	to bus3004;
};

object overhead_line {
	name Line.L_3003_3005;
	phases ABC;
	from bus3003;
	to bus3005;
};

object overhead_line {
	name Line.L_3005_3006;
	phases ABC;
	from bus3005;
	to bus3006;
};

object overhead_line {
	name Line.L_3006_3007;
	phases ABC;
	from bus3006;
	to bus3007;
};

object overhead_line {
	name Line.L_3005_3008;
	phases ABC;
	from bus3005;
	to bus3008;
};

object overhead_line {
	name Line.L_3008_3009;
	phases ABC;
	from bus3008;
	to bus3009;
};

object overhead_line {
	name Line.L_3009_3010;
	phases ABC;
	from bus3009;
	to bus3010;
};

object overhead_line {
	name Line.L_3010_3011;
	phases ABC;
	from bus3010;
	to bus3011;
};

object overhead_line {
	name Line.L_3011_3012;
	phases ABC;
	from bus3011;
	to bus3012;
};

object overhead_line {
	name Line.L_3008_3013;
	phases ABC;
	from bus3008;
	to bus3013;
};

object overhead_line {
	name Line.L_3013_3014;
	phases ABC;
	from bus3013;
	to bus3014;
};

object overhead_line {
	name Line.L_3008_3015;
	phases ABC;
	from bus3008;
	to bus3015;
};

object overhead_line {
	name Line.L_3015_3016;
	phases ABC;
	from bus3015;
	to bus3016;
};

object overhead_line {
	name Line.L_3016_3017;
	phases ABC;
	from bus3016;
	to bus3017;
};

object overhead_line {
	name Line.L_3015_3018;
	phases ABC;
	from bus3015;
	to bus3018;
};

object overhead_line {
	name Line.L_3018_3019;
	phases ABC;
	from bus3018;
	to bus3019;
};

object overhead_line {
	name Line.L_3019_3020;
	phases ABC;
	from bus3019;
	to bus3020;
};

object overhead_line {
	name Line.L_3020_3021;
	phases ABC;
	from bus3020;
	to bus3021;
};

object overhead_line {
	name Line.L_3015_3022;
	phases ABC;
	from bus3015;
	to bus3022;
};

object overhead_line {
	name Line.L_3022_3023;
	phases ABC;
	from bus3022;
	to bus3023;
};

object overhead_line {
	name Line.L_3023_3024;
	phases ABC;
	from bus3023;
	to bus3024;
};

object overhead_line {
	name Line.L_3024_3025;
	phases ABC;
	from bus3024;
	to bus3025;
};

object overhead_line {
	name Line.L_3022_3026;
	phases ABC;
	from bus3022;
	to bus3026;
};

object overhead_line {
	name Line.L_3026_3027;
	phases ABC;
	from bus3026;
	to bus3027;
};

object overhead_line {
	name Line.L_3027_3028;
	phases ABC;
	from bus3027;
	to bus3028;
};

object overhead_line {
	name Line.L_3028_3029;
	phases ABC;
	from bus3028;
	to bus3029;
};

object overhead_line {
	name Line.L_3022_3030;
	phases ABC;
	from bus3022;
	to bus3030;
};

object overhead_line {
	name Line.L_3030_3035;
	phases ABC;
	from bus3030;
	to bus3035;
};

object overhead_line {
	name Line.L_3035_3036;
	phases ABC;
	from bus3035;
	to bus3036;
};

object overhead_line {
	name Line.L_3036_3037;
	phases ABC;
	from bus3036;
	to bus3037;
};

object overhead_line {
	name Line.L_3037_3038;
	phases ABC;
	from bus3037;
	to bus3038;
};

object overhead_line {
	name Line.L_3038_3039;
	phases ABC;
	from bus3038;
	to bus3039;
};

object overhead_line {
	name Line.L_3039_3053;
	phases ABC;
	from bus3039;
	to bus3053;
};

object overhead_line {
	name Line.L_3053_3054;
	phases ABC;
	from bus3053;
	to bus3054;
};

object overhead_line {
	name Line.L_3053_3055;
	phases ABC;
	from bus3053;
	to bus3055;
};

object overhead_line {
	name Line.L_3055_3056;
	phases ABC;
	from bus3055;
	to bus3056;
};

object overhead_line {
	name Line.L_3056_3057;
	phases ABC;
	from bus3056;
	to bus3057;
};

object overhead_line {
	name Line.L_3057_3058;
	phases ABC;
	from bus3057;
	to bus3058;
};

object overhead_line {
	name Line.L_3058_3059;
	phases ABC;
	from bus3058;
	to bus3059;
};

object overhead_line {
	name Line.L_3059_3060;
	phases ABC;
	from bus3059;
	to bus3060;
};

object overhead_line {
	name Line.L_3060_3061;
	phases ABC;
	from bus3060;
	to bus3061;
};

object overhead_line {
	name Line.L_3055_3062;
	phases ABC;
	from bus3055;
	to bus3062;
};

object overhead_line {
	name Line.L_3062_3063;
	phases ABC;
	from bus3062;
	to bus3063;
};

object overhead_line {
	name Line.L_3063_3064;
	phases ABC;
	from bus3063;
	to bus3064;
};

object overhead_line {
	name Line.L_3064_3065;
	phases ABC;
	from bus3064;
	to bus3065;
};

object overhead_line {
	name Line.L_3065_3066;
	phases ABC;
	from bus3065;
	to bus3066;
};

object overhead_line {
	name Line.L_3066_3067;
	phases ABC;
	from bus3066;
	to bus3067;
};

object overhead_line {
	name Line.L_3030_3040;
	phases ABC;
	from bus3030;
	to bus3040;
};

object overhead_line {
	name Line.L_3040_3044;
	phases ABC;
	from bus3040;
	to bus3044;
};

object overhead_line {
	name Line.L_3044_3045;
	phases ABC;
	from bus3044;
	to bus3045;
};

object overhead_line {
	name Line.L_3040_3041;
	phases ABC;
	from bus3040;
	to bus3041;
};

object overhead_line {
	name Line.L_3041_3042;
	phases ABC;
	from bus3041;
	to bus3042;
};

object overhead_line {
	name Line.L_3042_3043;
	phases ABC;
	from bus3042;
	to bus3043;
};

object overhead_line {
	name Line.L_3040_3046;
	phases ABC;
	from bus3040;
	to bus3046;
};

object overhead_line {
	name Line.L_3046_3047;
	phases ABC;
	from bus3046;
	to bus3047;
};

object overhead_line {
	name Line.L_3046_3048;
	phases ABC;
	from bus3046;
	to bus3048;
};

object overhead_line {
	name Line.L_3048_3049;
	phases ABC;
	from bus3048;
	to bus3049;
};

object overhead_line {
	name Line.L_3049_3050;
	phases ABC;
	from bus3049;
	to bus3050;
};

object overhead_line {
	name Line.L_3050_3051;
	phases ABC;
	from bus3050;
	to bus3051;
};

object overhead_line {
	name Line.L_3051_3052;
	phases ABC;
	from bus3051;
	to bus3052;
};

object overhead_line {
	name Line.L_3030_3031;
	phases ABC;
	from bus3030;
	to bus3031;
};

object overhead_line {
	name Line.L_3031_3032;
	phases ABC;
	from bus3031;
	to bus3032;
};

object overhead_line {
	name Line.L_3032_3033;
	phases ABC;
	from bus3032;
	to bus3033;
};

object overhead_line {
	name Line.L_3033_3034;
	phases ABC;
	from bus3033;
	to bus3034;
};

object overhead_line {
	name Line.L_3034_3068;
	phases ABC;
	from bus3034;
	to bus3068;
};

object overhead_line {
	name Line.L_3068_3069;
	phases ABC;
	from bus3068;
	to bus3069;
};

object overhead_line {
	name Line.L_3069_3070;
	phases ABC;
	from bus3069;
	to bus3070;
};

object overhead_line {
	name Line.L_3070_3071;
	phases ABC;
	from bus3070;
	to bus3071;
};

object overhead_line {
	name Line.L_3071_3072;
	phases ABC;
	from bus3071;
	to bus3072;
};

object overhead_line {
	name Line.L_3069_3073;
	phases ABC;
	from bus3069;
	to bus3073;
};

object overhead_line {
	name Line.L_3073_3074;
	phases ABC;
	from bus3073;
	to bus3074;
};

object overhead_line {
	name Line.L_3068_3075;
	phases ABC;
	from bus3068;
	to bus3075;
};

object overhead_line {
	name Line.L_3076_3077;
	phases ABC;
	from bus3076;
	to bus3077;
};

object overhead_line {
	name Line.L_3077_3078;
	phases ABC;
	from bus3077;
	to bus3078;
};

object overhead_line {
	name Line.L_3076_3079;
	phases ABC;
	from bus3076;
	to bus3079;
};

object overhead_line {
	name Line.L_3079_3080;
	phases ABC;
	from bus3079;
	to bus3080;
};

object overhead_line {
	name Line.L_3080_3081;
	phases ABC;
	from bus3080;
	to bus3081;
};

object overhead_line {
	name Line.L_3080_3082;
	phases ABC;
	from bus3080;
	to bus3082;
};

object overhead_line {
	name Line.L_3082_3083;
	phases ABC;
	from bus3082;
	to bus3083;
};

object overhead_line {
	name Line.L_3083_3084;
	phases ABC;
	from bus3083;
	to bus3084;
};

object overhead_line {
	name Line.L_3084_3085;
	phases ABC;
	from bus3084;
	to bus3085;
};

object overhead_line {
	name Line.L_3085_3086;
	phases ABC;
	from bus3085;
	to bus3086;
};

object overhead_line {
	name Line.L_3086_3087;
	phases ABC;
	from bus3086;
	to bus3087;
};

object overhead_line {
	name Line.L_3087_3088;
	phases ABC;
	from bus3087;
	to bus3088;
};

object overhead_line {
	name Line.L_3088_3089;
	phases ABC;
	from bus3088;
	to bus3089;
};

object overhead_line {
	name Line.L_3089_3090;
	phases ABC;
	from bus3089;
	to bus3090;
};

object overhead_line {
	name Line.L_3090_3091;
	phases ABC;
	from bus3090;
	to bus3091;
};

object overhead_line {
	name Line.L_3082_3092;
	phases ABC;
	from bus3082;
	to bus3092;
};

object overhead_line {
	name Line.L_3092_3093;
	phases ABC;
	from bus3092;
	to bus3093;
};

object overhead_line {
	name Line.L_3093_3094;
	phases ABC;
	from bus3093;
	to bus3094;
};

object overhead_line {
	name Line.L_3094_3095;
	phases ABC;
	from bus3094;
	to bus3095;
};

object overhead_line {
	name Line.L_3095_3096;
	phases ABC;
	from bus3095;
	to bus3096;
};

object overhead_line {
	name Line.L_3096_3097;
	phases ABC;
	from bus3096;
	to bus3097;
};

object overhead_line {
	name Line.L_3092_3098;
	phases ABC;
	from bus3092;
	to bus3098;
};

object overhead_line {
	name Line.L_3098_3099;
	phases ABC;
	from bus3098;
	to bus3099;
};

object overhead_line {
	name Line.L_3092_3100;
	phases ABC;
	from bus3092;
	to bus3100;
};

object overhead_line {
	name Line.L_3100_3101;
	phases ABC;
	from bus3100;
	to bus3101;
};

object overhead_line {
	name Line.L_3101_3102;
	phases ABC;
	from bus3101;
	to bus3102;
};

object overhead_line {
	name Line.L_3102_3103;
	phases ABC;
	from bus3102;
	to bus3103;
};

object overhead_line {
	name Line.L_3100_3104;
	phases ABC;
	from bus3100;
	to bus3104;
};

object overhead_line {
	name Line.L_3104_3105;
	phases ABC;
	from bus3104;
	to bus3105;
};

object overhead_line {
	name Line.L_3105_3106;
	phases ABC;
	from bus3105;
	to bus3106;
};

object overhead_line {
	name Line.L_3082_3107;
	phases ABC;
	from bus3082;
	to bus3107;
};

object overhead_line {
	name Line.L_3107_3108;
	phases ABC;
	from bus3107;
	to bus3108;
};

object overhead_line {
	name Line.L_3108_3109;
	phases ABC;
	from bus3108;
	to bus3109;
};

object overhead_line {
	name Line.L_3109_3110;
	phases ABC;
	from bus3109;
	to bus3110;
};

object overhead_line {
	name Line.L_3110_3111;
	phases ABC;
	from bus3110;
	to bus3111;
};

object overhead_line {
	name Line.L_3111_3112;
	phases ABC;
	from bus3111;
	to bus3112;
};

object overhead_line {
	name Line.L_3107_3113;
	phases ABC;
	from bus3107;
	to bus3113;
};

object overhead_line {
	name Line.L_3113_3114;
	phases ABC;
	from bus3113;
	to bus3114;
};

object overhead_line {
	name Line.L_3114_3115;
	phases ABC;
	from bus3114;
	to bus3115;
};

object overhead_line {
	name Line.L_3113_3116;
	phases ABC;
	from bus3113;
	to bus3116;
};

object overhead_line {
	name Line.L_3116_3117;
	phases ABC;
	from bus3116;
	to bus3117;
};

object overhead_line {
	name Line.L_3107_3118;
	phases ABC;
	from bus3107;
	to bus3118;
};

object overhead_line {
	name Line.L_3118_3119;
	phases ABC;
	from bus3118;
	to bus3119;
};

object overhead_line {
	name Line.L_3119_3120;
	phases ABC;
	from bus3119;
	to bus3120;
};

object overhead_line {
	name Line.L_3120_3121;
	phases ABC;
	from bus3120;
	to bus3121;
};

object overhead_line {
	name Line.L_3121_3122;
	phases ABC;
	from bus3121;
	to bus3122;
};

object overhead_line {
	name Line.L_3119_3123;
	phases ABC;
	from bus3119;
	to bus3123;
};

object overhead_line {
	name Line.L_3123_3124;
	phases ABC;
	from bus3123;
	to bus3124;
};

object overhead_line {
	name Line.L_3124_3125;
	phases ABC;
	from bus3124;
	to bus3125;
};

object overhead_line {
	name Line.L_3125_3126;
	phases ABC;
	from bus3125;
	to bus3126;
};

object overhead_line {
	name Line.L_3126_3127;
	phases ABC;
	from bus3126;
	to bus3127;
};

object overhead_line {
	name Line.L_3127_3128;
	phases ABC;
	from bus3127;
	to bus3128;
};

object overhead_line {
	name Line.L_3128_3129;
	phases ABC;
	from bus3128;
	to bus3129;
};

object overhead_line {
	name Line.L_3129_3130;
	phases ABC;
	from bus3129;
	to bus3130;
};

object overhead_line {
	name Line.L_3130_3131;
	phases ABC;
	from bus3130;
	to bus3131;
};

object overhead_line {
	name Line.L_3118_3132;
	phases ABC;
	from bus3118;
	to bus3132;
};

object overhead_line {
	name Line.L_3132_3133;
	phases ABC;
	from bus3132;
	to bus3133;
};

object overhead_line {
	name Line.L_3133_3134;
	phases ABC;
	from bus3133;
	to bus3134;
};

object overhead_line {
	name Line.L_3134_3135;
	phases ABC;
	from bus3134;
	to bus3135;
};

object overhead_line {
	name Line.L_3135_3136;
	phases ABC;
	from bus3135;
	to bus3136;
};

object overhead_line {
	name Line.L_3133_3137;
	phases ABC;
	from bus3133;
	to bus3137;
};

object overhead_line {
	name Line.L_3137_3138;
	phases ABC;
	from bus3137;
	to bus3138;
};

object overhead_line {
	name Line.L_3138_3139;
	phases ABC;
	from bus3138;
	to bus3139;
};

object overhead_line {
	name Line.L_3107_3140;
	phases ABC;
	from bus3107;
	to bus3140;
};

object overhead_line {
	name Line.L_3140_3141;
	phases ABC;
	from bus3140;
	to bus3141;
};

object overhead_line {
	name Line.L_3141_3142;
	phases ABC;
	from bus3141;
	to bus3142;
};

object overhead_line {
	name Line.L_3142_3143;
	phases ABC;
	from bus3142;
	to bus3143;
};

object overhead_line {
	name Line.L_3140_3148;
	phases ABC;
	from bus3140;
	to bus3148;
};

object overhead_line {
	name Line.L_3148_3149;
	phases ABC;
	from bus3148;
	to bus3149;
};

object overhead_line {
	name Line.L_3149_3150;
	phases ABC;
	from bus3149;
	to bus3150;
};

object overhead_line {
	name Line.L_3150_3151;
	phases ABC;
	from bus3150;
	to bus3151;
};

object overhead_line {
	name Line.L_3151_3152;
	phases ABC;
	from bus3151;
	to bus3152;
};

object overhead_line {
	name Line.L_3152_3153;
	phases ABC;
	from bus3152;
	to bus3153;
};

object overhead_line {
	name Line.L_3153_3154;
	phases ABC;
	from bus3153;
	to bus3154;
};

object overhead_line {
	name Line.L_3154_3155;
	phases ABC;
	from bus3154;
	to bus3155;
};

object overhead_line {
	name Line.L_3140_3156;
	phases ABC;
	from bus3140;
	to bus3156;
};

object overhead_line {
	name Line.L_3156_3144;
	phases ABC;
	from bus3156;
	to bus3144;
};

object overhead_line {
	name Line.L_3144_3145;
	phases ABC;
	from bus3144;
	to bus3145;
};

object overhead_line {
	name Line.L_3145_3146;
	phases ABC;
	from bus3145;
	to bus3146;
};

object overhead_line {
	name Line.L_3146_3147;
	phases ABC;
	from bus3146;
	to bus3147;
};

object overhead_line {
	name Line.L_3156_3157;
	phases ABC;
	from bus3156;
	to bus3157;
};

object overhead_line {
	name Line.L_3157_3158;
	phases ABC;
	from bus3157;
	to bus3158;
};

object overhead_line {
	name Line.L_3158_3159;
	phases ABC;
	from bus3158;
	to bus3159;
};

object overhead_line {
	name Line.L_3159_3160;
	phases ABC;
	from bus3159;
	to bus3160;
};

object overhead_line {
	name Line.L_3160_3161;
	phases ABC;
	from bus3160;
	to bus3161;
};

object overhead_line {
	name Line.L_3161_3162;
	phases ABC;
	from bus3161;
	to bus3162;
};

object overhead_line {
	name Line.CB_101;
	phases ABC;
	from bus1;
	to bus1001;
};

object overhead_line {
	name Line.CB_102;
	phases ABC;
	from bus1010;
	to bus1010;
};

object overhead_line {
	name Line.CB_201;
	phases ABC;
	from bus1;
	to bus2001;
};

object overhead_line {
	name Line.CB_202;
	phases ABC;
	from bus2012;
	to bus2013;
};

object overhead_line {
	name Line.CB_203;
	phases ABC;
	from bus2021;
	to bus2026;
};

object overhead_line {
	name Line.CB_204;
	phases ABC;
	from bus2013;
	to bus2013;
};

object overhead_line {
	name Line.CB_301;
	phases ABC;
	from bus1;
	to bus3001;
};

object overhead_line {
	name Line.CB_302;
	phases ABC;
	from bus3075;
	to bus3076;
};

object overhead_line {
	name Line.CB_303;
	phases ABC;
	from bus3081;
	to bus3081;
};

object load {
	name Load.Load_1003;
	phases ABC;
};

object load {
	name Load.Load_1004;
	phases ABC;
};

object load {
	name Load.Load_1005;
	phases ABC;
};

object load {
	name Load.Load_1006;
	phases ABC;
};

object load {
	name Load.Load_1007;
	phases ABC;
};

object load {
	name Load.Load_1008;
	phases ABC;
};

object load {
	name Load.Load_1009;
	phases ABC;
};

object load {
	name Load.Load_1010;
	phases ABC;
};

object load {
	name Load.Load_1011;
	phases ABC;
};

object load {
	name Load.Load_1012;
	phases ABC;
};

object load {
	name Load.Load_1013;
	phases ABC;
};

object load {
	name Load.Load_1014;
	phases ABC;
};

object load {
	name Load.Load_1015;
	phases ABC;
};

object load {
	name Load.Load_1016;
	phases ABC;
};

object load {
	name Load.Load_1017;
	phases ABC;
};

object load {
	name Load.Load_2002;
	phases ABC;
};

object load {
	name Load.Load_2003;
	phases ABC;
};

object load {
	name Load.Load_2005;
	phases ABC;
};

object load {
	name Load.Load_2008;
	phases ABC;
};

object load {
	name Load.Load_2009;
	phases ABC;
};

object load {
	name Load.Load_2010;
	phases ABC;
};

object load {
	name Load.Load_2011;
	phases ABC;
};

object load {
	name Load.Load_2014;
	phases ABC;
};

object load {
	name Load.Load_2015;
	phases ABC;
};

object load {
	name Load.Load_2016;
	phases ABC;
};

object load {
	name Load.Load_2017;
	phases ABC;
};

object load {
	name Load.Load_2018;
	phases ABC;
};

object load {
	name Load.Load_2020;
	phases ABC;
};

object load {
	name Load.Load_2022;
	phases ABC;
};

object load {
	name Load.Load_2023;
	phases ABC;
};

object load {
	name Load.Load_2024;
	phases ABC;
};

object load {
	name Load.Load_2025;
	phases ABC;
};

object load {
	name Load.Load_2028;
	phases ABC;
};

object load {
	name Load.Load_2029;
	phases ABC;
};

object load {
	name Load.Load_2030;
	phases ABC;
};

object load {
	name Load.Load_2031;
	phases ABC;
};

object load {
	name Load.Load_2032;
	phases ABC;
};

object load {
	name Load.Load_2034;
	phases ABC;
};

object load {
	name Load.Load_2035;
	phases ABC;
};

object load {
	name Load.Load_2037;
	phases ABC;
};

object load {
	name Load.Load_2040;
	phases ABC;
};

object load {
	name Load.Load_2041;
	phases ABC;
};

object load {
	name Load.Load_2042;
	phases ABC;
};

object load {
	name Load.Load_2043;
	phases ABC;
};

object load {
	name Load.Load_2045;
	phases ABC;
};

object load {
	name Load.Load_2046;
	phases ABC;
};

object load {
	name Load.Load_2047;
	phases ABC;
};

object load {
	name Load.Load_2048;
	phases ABC;
};

object load {
	name Load.Load_2049;
	phases ABC;
};

object load {
	name Load.Load_2050;
	phases ABC;
};

object load {
	name Load.Load_2051;
	phases ABC;
};

object load {
	name Load.Load_2052;
	phases ABC;
};

object load {
	name Load.Load_2053;
	phases ABC;
};

object load {
	name Load.Load_2054;
	phases ABC;
};

object load {
	name Load.Load_2055;
	phases ABC;
};

object load {
	name Load.Load_2056;
	phases ABC;
};

object load {
	name Load.Load_2058;
	phases ABC;
};

object load {
	name Load.Load_2059;
	phases ABC;
};

object load {
	name Load.Load_2060;
	phases ABC;
};

object load {
	name Load.Load_3002;
	phases ABC;
};

object load {
	name Load.Load_3004;
	phases ABC;
};

object load {
	name Load.Load_3006;
	phases ABC;
};

object load {
	name Load.Load_3007;
	phases ABC;
};

object load {
	name Load.Load_3009;
	phases ABC;
};

object load {
	name Load.Load_3010;
	phases ABC;
};

object load {
	name Load.Load_3011;
	phases ABC;
};

object load {
	name Load.Load_3012;
	phases ABC;
};

object load {
	name Load.Load_3013;
	phases ABC;
};

object load {
	name Load.Load_3014;
	phases ABC;
};

object load {
	name Load.Load_3016;
	phases ABC;
};

object load {
	name Load.Load_3017;
	phases ABC;
};

object load {
	name Load.Load_3018;
	phases ABC;
};

object load {
	name Load.Load_3019;
	phases ABC;
};

object load {
	name Load.Load_3020;
	phases ABC;
};

object load {
	name Load.Load_3021;
	phases ABC;
};

object load {
	name Load.Load_3023;
	phases ABC;
};

object load {
	name Load.Load_3024;
	phases ABC;
};

object load {
	name Load.Load_3025;
	phases ABC;
};

object load {
	name Load.Load_3026;
	phases ABC;
};

object load {
	name Load.Load_3027;
	phases ABC;
};

object load {
	name Load.Load_3028;
	phases ABC;
};

object load {
	name Load.Load_3029;
	phases ABC;
};

object load {
	name Load.Load_3031;
	phases ABC;
};

object load {
	name Load.Load_3032;
	phases ABC;
};

object load {
	name Load.Load_3033;
	phases ABC;
};

object load {
	name Load.Load_3034;
	phases ABC;
};

object load {
	name Load.Load_3035;
	phases ABC;
};

object load {
	name Load.Load_3036;
	phases ABC;
};

object load {
	name Load.Load_3037;
	phases ABC;
};

object load {
	name Load.Load_3038;
	phases ABC;
};

object load {
	name Load.Load_3039;
	phases ABC;
};

object load {
	name Load.Load_3041;
	phases ABC;
};

object load {
	name Load.Load_3042;
	phases ABC;
};

object load {
	name Load.Load_3043;
	phases ABC;
};

object load {
	name Load.Load_3044;
	phases ABC;
};

object load {
	name Load.Load_3045;
	phases ABC;
};

object load {
	name Load.Load_3047;
	phases ABC;
};

object load {
	name Load.Load_3048;
	phases ABC;
};

object load {
	name Load.Load_3049;
	phases ABC;
};

object load {
	name Load.Load_3050;
	phases ABC;
};

object load {
	name Load.Load_3051;
	phases ABC;
};

object load {
	name Load.Load_3052;
	phases ABC;
};

object load {
	name Load.Load_3054;
	phases ABC;
};

object load {
	name Load.Load_3056;
	phases ABC;
};

object load {
	name Load.Load_3057;
	phases ABC;
};

object load {
	name Load.Load_3058;
	phases ABC;
};

object load {
	name Load.Load_3059;
	phases ABC;
};

object load {
	name Load.Load_3060;
	phases ABC;
};

object load {
	name Load.Load_3061;
	phases ABC;
};

object load {
	name Load.Load_3062;
	phases ABC;
};

object load {
	name Load.Load_3063;
	phases ABC;
};

object load {
	name Load.Load_3064;
	phases ABC;
};

object load {
	name Load.Load_3065;
	phases ABC;
};

object load {
	name Load.Load_3066;
	phases ABC;
};

object load {
	name Load.Load_3067;
	phases ABC;
};

object load {
	name Load.Load_3070;
	phases ABC;
};

object load {
	name Load.Load_3071;
	phases ABC;
};

object load {
	name Load.Load_3072;
	phases ABC;
};

object load {
	name Load.Load_3073;
	phases ABC;
};

object load {
	name Load.Load_3074;
	phases ABC;
};

object load {
	name Load.Load_3077;
	phases ABC;
};

object load {
	name Load.Load_3078;
	phases ABC;
};

object load {
	name Load.Load_3081;
	phases ABC;
};

object load {
	name Load.Load_3083;
	phases ABC;
};

object load {
	name Load.Load_3084;
	phases ABC;
};

object load {
	name Load.Load_3085;
	phases ABC;
};

object load {
	name Load.Load_3086;
	phases ABC;
};

object load {
	name Load.Load_3087;
	phases ABC;
};

object load {
	name Load.Load_3088;
	phases ABC;
};

object load {
	name Load.Load_3089;
	phases ABC;
};

object load {
	name Load.Load_3090;
	phases ABC;
};

object load {
	name Load.Load_3091;
	phases ABC;
};

object load {
	name Load.Load_3093;
	phases ABC;
};

object load {
	name Load.Load_3094;
	phases ABC;
};

object load {
	name Load.Load_3095;
	phases ABC;
};

object load {
	name Load.Load_3096;
	phases ABC;
};

object load {
	name Load.Load_3097;
	phases ABC;
};

object load {
	name Load.Load_3098;
	phases ABC;
};

object load {
	name Load.Load_3099;
	phases ABC;
};

object load {
	name Load.Load_3101;
	phases ABC;
};

object load {
	name Load.Load_3102;
	phases ABC;
};

object load {
	name Load.Load_3103;
	phases ABC;
};

object load {
	name Load.Load_3104;
	phases ABC;
};

object load {
	name Load.Load_3105;
	phases ABC;
};

object load {
	name Load.Load_3106;
	phases ABC;
};

object load {
	name Load.Load_3108;
	phases ABC;
};

object load {
	name Load.Load_3109;
	phases ABC;
};

object load {
	name Load.Load_3110;
	phases ABC;
};

object load {
	name Load.Load_3111;
	phases ABC;
};

object load {
	name Load.Load_3112;
	phases ABC;
};

object load {
	name Load.Load_3114;
	phases ABC;
};

object load {
	name Load.Load_3115;
	phases ABC;
};

object load {
	name Load.Load_3116;
	phases ABC;
};

object load {
	name Load.Load_3117;
	phases ABC;
};

object load {
	name Load.Load_3120;
	phases ABC;
};

object load {
	name Load.Load_3121;
	phases ABC;
};

object load {
	name Load.Load_3122;
	phases ABC;
};

object load {
	name Load.Load_3123;
	phases ABC;
};

object load {
	name Load.Load_3124;
	phases ABC;
};

object load {
	name Load.Load_3125;
	phases ABC;
};

object load {
	name Load.Load_3126;
	phases ABC;
};

object load {
	name Load.Load_3127;
	phases ABC;
};

object load {
	name Load.Load_3128;
	phases ABC;
};

object load {
	name Load.Load_3129;
	phases ABC;
};

object load {
	name Load.Load_3130;
	phases ABC;
};

object load {
	name Load.Load_3131;
	phases ABC;
};

object load {
	name Load.Load_3132;
	phases ABC;
};

object load {
	name Load.Load_3134;
	phases ABC;
};

object load {
	name Load.Load_3135;
	phases ABC;
};

object load {
	name Load.Load_3136;
	phases ABC;
};

object load {
	name Load.Load_3137;
	phases ABC;
};

object load {
	name Load.Load_3138;
	phases ABC;
};

object load {
	name Load.Load_3139;
	phases ABC;
};

object load {
	name Load.Load_3141;
	phases ABC;
};

object load {
	name Load.Load_3142;
	phases ABC;
};

object load {
	name Load.Load_3143;
	phases ABC;
};

object load {
	name Load.Load_3144;
	phases ABC;
};

object load {
	name Load.Load_3145;
	phases ABC;
};

object load {
	name Load.Load_3146;
	phases ABC;
};

object load {
	name Load.Load_3147;
	phases ABC;
};

object load {
	name Load.Load_3148;
	phases ABC;
};

object load {
	name Load.Load_3149;
	phases ABC;
};

object load {
	name Load.Load_3150;
	phases ABC;
};

object load {
	name Load.Load_3151;
	phases ABC;
};

object load {
	name Load.Load_3152;
	phases ABC;
};

object load {
	name Load.Load_3153;
	phases ABC;
};

object load {
	name Load.Load_3154;
	phases ABC;
};

object load {
	name Load.Load_3155;
	phases ABC;
};

object load {
	name Load.Load_3157;
	phases ABC;
};

object load {
	name Load.Load_3158;
	phases ABC;
};

object load {
	name Load.Load_3159;
	phases ABC;
};

object load {
	name Load.Load_3160;
	phases ABC;
};

object load {
	name Load.Load_3161;
	phases ABC;
};

object load {
	name Load.Load_3162;
	phases ABC;
};

